# MODFLOW-USG Block-Centered Transport (BCT) Package
 1 145 1 1 0 1 0   -1.000000e+000 1.000000e-006    1 0 0.000000e+000 0 0  0  0  0  0  0
CONSTANT  1.000000e-001              Porosity Layer 1
CONSTANT  1.000000e-001              Porosity Layer 2
INTERNAL  1.000000e+000  (FREE)  -1  Porosity Layer 3
 1.000000e-001 1.000000e-001 1.000000e-001 1.000000e-001 1.000000e-001 1.000000e-001 1.000000e-001 1.000000e-001 1.000000e-001 1.000000e-001
 1.000000e-001 1.000000e-001 1.000000e-001 1.000000e-001 1.000000e-001 1.000000e-001 1.000000e-001 1.000000e-001 1.000000e-001 1.000000e-001
 1.000000e-001 1.000000e-001 1.000000e-001 1.000000e-001 1.000000e-001 1.000000e-001 1.000000e-001 1.000000e-001 1.000000e-001 1.000000e-001
 1.000000e-001 1.000000e-001 1.000000e-001 1.000000e-001 1.000000e-001 1.000000e-001 1.000000e-001 1.000000e-001 1.000000e-001 1.000000e-001
 1.000000e-001 1.000000e-001 1.000000e-001 1.000000e-001 1.000000e-001 1.000000e-001 1.000000e-001 1.000000e-001 1.000000e-001 1.000000e-001
 1.000000e-001 1.000000e-001 1.000000e-001 1.000000e-001 1.000000e-001 1.000000e-001 1.000000e-001 1.000000e-001 1.000000e-001 1.000000e-001
 1.000000e-001 1.000000e-001 1.000000e-001 1.000000e-001 1.000000e-001 1.000000e-001 1.000000e-001 1.000000e-001 1.000000e-001 1.000000e-001
 1.000000e-001 1.000000e-001 1.000000e-001 1.000000e-001 1.000000e-001 1.000000e-001 1.000000e-001 1.000000e-001 1.000000e-001 1.000000e-001
 1.000000e-001 1.000000e-001 1.000000e-001 1.000000e-001 1.000000e-001 1.000000e-001 1.000000e-001 1.000000e-001 1.000000e-001 1.000000e-001
 1.000000e-001 1.000000e-001 1.000000e-001 1.000000e-001 1.000000e-001 1.000000e-001 1.000000e-001 1.000000e-001 1.000000e-001 1.000000e-001
 1.000000e-001 1.000000e-001 1.000000e-001 1.000000e-001 1.000000e-001 1.000000e-001 1.000000e-001 1.000000e-001 1.000000e-001 1.000000e-001
 1.000000e-001 1.000000e-001 1.000000e-001 1.000000e-001 1.000000e-001 1.000000e-001 1.000000e-001 1.000000e-001 1.000000e-001 1.000000e-001
 1.000000e-001 1.000000e-001 1.000000e-001 1.000000e-001 1.000000e-001 1.000000e-001 1.000000e-001 1.000000e-001 1.000000e-001 1.000000e-001
 1.000000e-001 1.000000e-001 1.000000e-001 1.000000e-001 1.000000e-001 1.000000e-001 1.000000e-001 1.000000e-001 1.000000e-001 1.000000e-001
 1.000000e-001 1.000000e-001 1.000000e-001 1.000000e-001 1.000000e-001 1.000000e-001 1.000000e-001 1.000000e-001 1.000000e-001 1.000000e-001
 1.000000e-001 1.000000e-001 1.000000e-001 1.000000e-001 1.000000e-001 1.000000e-001 1.000000e-001 1.000000e-001 1.000000e-001 1.000000e-001
 1.000000e-001 1.000000e-001 1.000000e-001 1.000000e-001 1.000000e-001 1.000000e-001 1.000000e-001 1.000000e-001 1.000000e-001 1.000000e-001
 1.000000e-001 1.000000e-001 1.000000e-001 1.000000e-001 1.000000e-001 1.000000e-001 1.000000e-001 1.000000e-001 1.000000e-001 1.000000e-001
 1.000000e-001 1.000000e-001 1.000000e-001 1.000000e-001 1.000000e-001 1.000000e-001 1.000000e-001 1.000000e-001 1.000000e-001 1.000000e-001
 1.000000e-001 1.000000e-001 1.000000e-001 1.000000e-001 1.000000e-001 1.000000e-001 1.000000e-001 1.000000e-001 1.000000e-001 1.000000e-001
 1.000000e-001 1.000000e-001 1.000000e-001 1.000000e-001 1.000000e-001 1.000000e-001 1.000000e-001 1.000000e-001 1.000000e-001 1.000000e-001
 1.000000e-001 1.000000e-001 1.000000e-001 1.000000e-001 1.000000e-001 1.000000e-001 1.000000e-001 1.000000e-001 1.000000e-001 1.000000e-001
 1.000000e-001 1.000000e-001 1.000000e-001 1.000000e-001 1.000000e-001 1.000000e-001 1.000000e-001 1.000000e-001 1.000000e-001 1.000000e-001
 1.000000e-001 1.000000e-001 1.000000e-001 1.000000e-001 1.000000e-001 1.000000e-001 1.000000e-001 1.000000e-001 1.000000e-001 1.000000e-001
 1.000000e-001 1.000000e-001 1.000000e-001 1.000000e-001 1.000000e-001 1.000000e-001 1.000000e-001 1.000000e-001 1.000000e-001 1.000000e-001
 1.000000e-001 1.000000e-001 1.000000e-001 1.000000e-001 1.000000e-001 1.000000e-001 1.000000e-001 1.000000e-001 1.000000e-001 1.000000e-001
 1.000000e-001 1.000000e-001 1.000000e-001 1.000000e-001 1.000000e-001 1.000000e-001 1.000000e-001 1.000000e-001 1.000000e-001 1.000000e-001
 1.000000e-001 1.000000e-001 1.000000e-001 1.000000e-001 1.000000e-001 1.000000e-001 1.000000e-001 1.000000e-001 1.000000e-001 1.000000e-001
 1.000000e-001 1.000000e-001 1.000000e-001 1.000000e-001 1.000000e-001 1.000000e-001 1.000000e-001 1.000000e-001 1.000000e-001 1.000000e-001
 1.000000e-001 1.000000e-001 1.000000e-001 1.000000e-001 1.000000e-001 1.000000e-001 1.000000e-001 1.000000e-001 1.000000e-001 1.000000e-001
 1.000000e-001 1.000000e-001 1.000000e-001 1.000000e-001 1.000000e-001 1.000000e-001 1.000000e-001 1.000000e-001 1.000000e-001 1.000000e-001
 1.000000e-001 1.000000e-001 1.000000e-001 1.000000e-001 1.000000e-001 1.000000e-001 1.000000e-001 1.000000e-001 1.000000e-001 1.000000e-001
 1.000000e-001 1.000000e-001 1.000000e-001 1.000000e-001 1.000000e-001 1.000000e-001 1.000000e-001 1.000000e-001 1.000000e-001 1.000000e-001
 1.000000e-001 1.000000e-001 1.000000e-001 1.000000e-001 1.000000e-001 1.000000e-001 1.000000e-001 1.000000e-001 1.000000e-001 1.000000e-001
 1.000000e-001 1.000000e-001 1.000000e-001 1.000000e-001 1.000000e-001 1.000000e-001 1.000000e-001 1.000000e-001 1.000000e-001 1.000000e-001
 1.000000e-001 1.000000e-001 1.000000e-001 1.000000e-001 1.000000e-001 1.000000e-001 1.000000e-001 1.000000e-001 1.000000e-001 1.000000e-001
 1.000000e-001 1.000000e-001 1.000000e-001 1.000000e-001 1.000000e-001 1.000000e-001 1.000000e-001 1.000000e-001 1.000000e-001 1.000000e-001
 1.000000e-001 1.000000e-001 1.000000e-001 1.000000e-001 1.000000e-001 1.000000e-001 1.000000e-001 1.000000e-001 1.000000e-001 1.000000e-001
 1.000000e-001 1.000000e-001 1.000000e-001 1.000000e-001 1.000000e-001 1.000000e-001 1.000000e-001 1.000000e-001 1.000000e-001 1.000000e-001
 1.000000e-001 1.000000e-001 1.000000e-001 1.000000e-001 1.000000e-001 1.000000e-001 1.000000e-001 1.000000e-001 1.000000e-001 1.000000e-001
INTERNAL  1.000000e+000  (FREE)  -1  BULKD Layer 1
 1.570000e+002 1.570000e+002 1.570000e+002 1.570000e+002 1.570000e+002 1.570000e+002 1.570000e+002 1.570000e+002 1.570000e+002 1.570000e+002
 1.570000e+002 1.570000e+002 1.570000e+002 1.570000e+002 1.570000e+002 1.570000e+002 1.570000e+002 1.570000e+002 1.570000e+002 1.570000e+002
 1.570000e+002 1.570000e+002 1.570000e+002 1.570000e+002 1.570000e+002 1.570000e+002 1.570000e+002 1.570000e+002 1.570000e+002 1.570000e+002
 1.570000e+002 1.570000e+002 1.570000e+002 1.570000e+002 1.570000e+002 1.570000e+002 1.570000e+002 1.570000e+002 1.570000e+002 1.570000e+002
 1.570000e+002 1.570000e+002 1.570000e+002 1.570000e+002 1.570000e+002 1.570000e+002 1.570000e+002 1.570000e+002 1.570000e+002 1.570000e+002
 1.570000e+002 1.570000e+002 1.570000e+002 1.570000e+002 1.570000e+002 1.570000e+002 1.570000e+002 1.570000e+002 1.570000e+002 1.570000e+002
 1.570000e+002 1.570000e+002 1.570000e+002 1.570000e+002 1.570000e+002 1.570000e+002 1.570000e+002 1.570000e+002 1.570000e+002 1.570000e+002
 1.570000e+002 1.570000e+002 1.570000e+002 1.570000e+002 1.570000e+002 1.570000e+002 1.570000e+002 1.570000e+002 1.570000e+002 1.570000e+002
 1.570000e+002 1.570000e+002 1.570000e+002 1.570000e+002 1.570000e+002 1.570000e+002 1.570000e+002 1.570000e+002 1.570000e+002 1.570000e+002
 1.570000e+002 1.570000e+002 1.570000e+002 1.570000e+002 1.570000e+002 1.570000e+002 1.570000e+002 1.570000e+002 1.570000e+002 1.570000e+002
 1.570000e+002 1.570000e+002 1.570000e+002 1.570000e+002 1.570000e+002 1.570000e+002 1.570000e+002 1.570000e+002 1.570000e+002 1.570000e+002
 1.570000e+002 1.570000e+002 1.570000e+002 1.570000e+002 1.570000e+002 1.570000e+002 1.570000e+002 1.570000e+002 1.570000e+002 1.570000e+002
 1.570000e+002 1.570000e+002 1.570000e+002 1.570000e+002 1.570000e+002 1.570000e+002 1.570000e+002 1.570000e+002 1.570000e+002 1.570000e+002
 1.570000e+002 1.570000e+002 1.570000e+002 1.570000e+002 1.570000e+002 1.570000e+002 1.570000e+002 1.570000e+002 1.570000e+002 1.570000e+002
 1.570000e+002 1.570000e+002 1.570000e+002 1.570000e+002 1.570000e+002 1.570000e+002 1.570000e+002 1.570000e+002 1.570000e+002 1.570000e+002
 1.570000e+002 1.570000e+002 1.570000e+002 1.570000e+002 1.570000e+002 1.570000e+002 1.570000e+002 1.570000e+002 1.570000e+002 1.570000e+002
 1.570000e+002 1.570000e+002 1.570000e+002 1.570000e+002 1.570000e+002 1.570000e+002 1.570000e+002 1.570000e+002 1.570000e+002 1.570000e+002
 1.570000e+002 1.570000e+002 1.570000e+002 1.570000e+002 1.570000e+002 1.570000e+002 1.570000e+002 1.570000e+002 1.570000e+002 1.570000e+002
 1.570000e+002 1.570000e+002 1.570000e+002 1.570000e+002 1.570000e+002 1.570000e+002 1.570000e+002 1.570000e+002 1.570000e+002 1.570000e+002
 1.570000e+002 1.570000e+002 1.570000e+002 1.570000e+002 1.570000e+002 1.570000e+002 1.570000e+002 1.570000e+002 1.570000e+002 1.570000e+002
 1.570000e+002 1.570000e+002 1.570000e+002 1.570000e+002 1.570000e+002 1.570000e+002 1.570000e+002 1.570000e+002 1.570000e+002 1.570000e+002
 1.570000e+002 1.570000e+002 1.570000e+002 1.570000e+002 1.570000e+002 1.570000e+002 1.570000e+002 1.570000e+002 1.570000e+002 1.570000e+002
 1.570000e+002 1.570000e+002 1.570000e+002 1.570000e+002 1.570000e+002 1.570000e+002 1.570000e+002 1.570000e+002 1.570000e+002 1.570000e+002
 1.570000e+002 1.570000e+002 1.570000e+002 1.570000e+002 1.570000e+002 1.570000e+002 1.570000e+002 1.570000e+002 1.570000e+002 1.570000e+002
 1.570000e+002 1.570000e+002 1.570000e+002 1.570000e+002 1.570000e+002 1.570000e+002 1.570000e+002 1.570000e+002 1.570000e+002 1.570000e+002
 1.570000e+002 1.570000e+002 1.570000e+002 1.570000e+002 1.570000e+002 1.570000e+002 1.570000e+002 1.570000e+002 1.570000e+002 1.570000e+002
 1.570000e+002 1.570000e+002 1.570000e+002 1.570000e+002 1.570000e+002 1.570000e+002 1.570000e+002 1.570000e+002 1.570000e+002 1.570000e+002
 1.570000e+002 1.570000e+002 1.570000e+002 1.570000e+002 1.570000e+002 1.570000e+002 1.570000e+002 1.570000e+002 1.570000e+002 1.570000e+002
 1.570000e+002 1.570000e+002 1.570000e+002 1.570000e+002 1.570000e+002 1.570000e+002 1.570000e+002 1.570000e+002 1.570000e+002 1.570000e+002
 1.570000e+002 1.570000e+002 1.570000e+002 1.570000e+002 1.570000e+002 1.570000e+002 1.570000e+002 1.570000e+002 1.570000e+002 1.570000e+002
 1.570000e+002 1.570000e+002 1.570000e+002 1.570000e+002 1.570000e+002 1.570000e+002 1.570000e+002 1.570000e+002 1.570000e+002 1.570000e+002
 1.570000e+002 1.570000e+002 1.570000e+002 1.570000e+002 1.570000e+002 1.570000e+002 1.570000e+002 1.570000e+002 1.570000e+002 1.570000e+002
 1.570000e+002 1.570000e+002 1.570000e+002 1.570000e+002 1.570000e+002 1.570000e+002 1.570000e+002 1.570000e+002 1.570000e+002 1.570000e+002
 1.570000e+002 1.570000e+002 1.570000e+002 1.570000e+002 1.570000e+002 1.570000e+002 1.570000e+002 1.570000e+002 1.570000e+002 1.570000e+002
 1.570000e+002 1.570000e+002 1.570000e+002 1.570000e+002 1.570000e+002 1.570000e+002 1.570000e+002 1.570000e+002 1.570000e+002 1.570000e+002
 1.570000e+002 1.570000e+002 1.570000e+002 1.570000e+002 1.570000e+002 1.570000e+002 1.570000e+002 1.570000e+002 1.570000e+002 1.570000e+002
 1.570000e+002 1.570000e+002 1.570000e+002 1.570000e+002 1.570000e+002 1.570000e+002 1.570000e+002 1.570000e+002 1.570000e+002 1.570000e+002
 1.570000e+002 1.570000e+002 1.570000e+002 1.570000e+002 1.570000e+002 1.570000e+002 1.570000e+002 1.570000e+002 1.570000e+002 1.570000e+002
 1.570000e+002 1.570000e+002 1.570000e+002 1.570000e+002 1.570000e+002 1.570000e+002 1.570000e+002 1.570000e+002 1.570000e+002 1.570000e+002
 1.570000e+002 1.570000e+002 1.570000e+002 1.570000e+002 1.570000e+002 1.570000e+002 1.570000e+002 1.570000e+002 1.570000e+002 1.570000e+002
INTERNAL  1.000000e+000  (FREE)  -1  BULKD Layer 2
 1.570000e+002 1.570000e+002 1.570000e+002 1.570000e+002 1.570000e+002 1.570000e+002 1.570000e+002 1.570000e+002 1.570000e+002 1.570000e+002
 1.570000e+002 1.570000e+002 1.570000e+002 1.570000e+002 1.570000e+002 1.570000e+002 1.570000e+002 1.570000e+002 1.570000e+002 1.570000e+002
 1.570000e+002 1.570000e+002 1.570000e+002 1.570000e+002 1.570000e+002 1.570000e+002 1.570000e+002 1.570000e+002 1.570000e+002 1.570000e+002
 1.570000e+002 1.570000e+002 1.570000e+002 1.570000e+002 1.570000e+002 1.570000e+002 1.570000e+002 1.570000e+002 1.570000e+002 1.570000e+002
 1.570000e+002 1.570000e+002 1.570000e+002 1.570000e+002 1.570000e+002 1.570000e+002 1.570000e+002 1.570000e+002 1.570000e+002 1.570000e+002
 1.570000e+002 1.570000e+002 1.570000e+002 1.570000e+002 1.570000e+002 1.570000e+002 1.570000e+002 1.570000e+002 1.570000e+002 1.570000e+002
 1.570000e+002 1.570000e+002 1.570000e+002 1.570000e+002 1.570000e+002 1.570000e+002 1.570000e+002 1.570000e+002 1.570000e+002 1.570000e+002
 1.570000e+002 1.570000e+002 1.570000e+002 1.570000e+002 1.570000e+002 1.570000e+002 1.570000e+002 1.570000e+002 1.570000e+002 1.570000e+002
 1.570000e+002 1.570000e+002 1.570000e+002 1.570000e+002 1.570000e+002 1.570000e+002 1.570000e+002 1.570000e+002 1.570000e+002 1.570000e+002
 1.570000e+002 1.570000e+002 1.570000e+002 1.570000e+002 1.570000e+002 1.570000e+002 1.570000e+002 1.570000e+002 1.570000e+002 1.570000e+002
 1.570000e+002 1.570000e+002 1.570000e+002 1.570000e+002 1.570000e+002 1.570000e+002 1.570000e+002 1.570000e+002 1.570000e+002 1.570000e+002
 1.570000e+002 1.570000e+002 1.570000e+002 1.570000e+002 1.570000e+002 1.570000e+002 1.570000e+002 1.570000e+002 1.570000e+002 1.570000e+002
 1.570000e+002 1.570000e+002 1.570000e+002 1.570000e+002 1.570000e+002 1.570000e+002 1.570000e+002 1.570000e+002 1.570000e+002 1.570000e+002
 1.570000e+002 1.570000e+002 1.570000e+002 1.570000e+002 1.570000e+002 1.570000e+002 1.570000e+002 1.570000e+002 1.570000e+002 1.570000e+002
 1.570000e+002 1.570000e+002 1.570000e+002 1.570000e+002 1.570000e+002 1.570000e+002 1.570000e+002 1.570000e+002 1.570000e+002 1.570000e+002
 1.570000e+002 1.570000e+002 1.570000e+002 1.570000e+002 1.570000e+002 1.570000e+002 1.570000e+002 1.570000e+002 1.570000e+002 1.570000e+002
 1.570000e+002 1.570000e+002 1.570000e+002 1.570000e+002 1.570000e+002 1.570000e+002 1.570000e+002 1.570000e+002 1.570000e+002 1.570000e+002
 1.570000e+002 1.570000e+002 1.570000e+002 1.570000e+002 1.570000e+002 1.570000e+002 1.570000e+002 1.570000e+002 1.570000e+002 1.570000e+002
 1.570000e+002 1.570000e+002 1.570000e+002 1.570000e+002 1.570000e+002 1.570000e+002 1.570000e+002 1.570000e+002 1.570000e+002 1.570000e+002
 1.570000e+002 1.570000e+002 1.570000e+002 1.570000e+002 1.570000e+002 1.570000e+002 1.570000e+002 1.570000e+002 1.570000e+002 1.570000e+002
 1.570000e+002 1.570000e+002 1.570000e+002 1.570000e+002 1.570000e+002 1.570000e+002 1.570000e+002 1.570000e+002 1.570000e+002 1.570000e+002
 1.570000e+002 1.570000e+002 1.570000e+002 1.570000e+002 1.570000e+002 1.570000e+002 1.570000e+002 1.570000e+002 1.570000e+002 1.570000e+002
 1.570000e+002 1.570000e+002 1.570000e+002 1.570000e+002 1.570000e+002 1.570000e+002 1.570000e+002 1.570000e+002 1.570000e+002 1.570000e+002
 1.570000e+002 1.570000e+002 1.570000e+002 1.570000e+002 1.570000e+002 1.570000e+002 1.570000e+002 1.570000e+002 1.570000e+002 1.570000e+002
 1.570000e+002 1.570000e+002 1.570000e+002 1.570000e+002 1.570000e+002 1.570000e+002 1.570000e+002 1.570000e+002 1.570000e+002 1.570000e+002
 1.570000e+002 1.570000e+002 1.570000e+002 1.570000e+002 1.570000e+002 1.570000e+002 1.570000e+002 1.570000e+002 1.570000e+002 1.570000e+002
 1.570000e+002 1.570000e+002 1.570000e+002 1.570000e+002 1.570000e+002 1.570000e+002 1.570000e+002 1.570000e+002 1.570000e+002 1.570000e+002
 1.570000e+002 1.570000e+002 1.570000e+002 1.570000e+002 1.570000e+002 1.570000e+002 1.570000e+002 1.570000e+002 1.570000e+002 1.570000e+002
 1.570000e+002 1.570000e+002 1.570000e+002 1.570000e+002 1.570000e+002 1.570000e+002 1.570000e+002 1.570000e+002 1.570000e+002 1.570000e+002
 1.570000e+002 1.570000e+002 1.570000e+002 1.570000e+002 1.570000e+002 1.570000e+002 1.570000e+002 1.570000e+002 1.570000e+002 1.570000e+002
 1.570000e+002 1.570000e+002 1.570000e+002 1.570000e+002 1.570000e+002 1.570000e+002 1.570000e+002 1.570000e+002 1.570000e+002 1.570000e+002
 1.570000e+002 1.570000e+002 1.570000e+002 1.570000e+002 1.570000e+002 1.570000e+002 1.570000e+002 1.570000e+002 1.570000e+002 1.570000e+002
 1.570000e+002 1.570000e+002 1.570000e+002 1.570000e+002 1.570000e+002 1.570000e+002 1.570000e+002 1.570000e+002 1.570000e+002 1.570000e+002
 1.570000e+002 1.570000e+002 1.570000e+002 1.570000e+002 1.570000e+002 1.570000e+002 1.570000e+002 1.570000e+002 1.570000e+002 1.570000e+002
 1.570000e+002 1.570000e+002 1.570000e+002 1.570000e+002 1.570000e+002 1.570000e+002 1.570000e+002 1.570000e+002 1.570000e+002 1.570000e+002
 1.570000e+002 1.570000e+002 1.570000e+002 1.570000e+002 1.570000e+002 1.570000e+002 1.570000e+002 1.570000e+002 1.570000e+002 1.570000e+002
 1.570000e+002 1.570000e+002 1.570000e+002 1.570000e+002 1.570000e+002 1.570000e+002 1.570000e+002 1.570000e+002 1.570000e+002 1.570000e+002
 1.570000e+002 1.570000e+002 1.570000e+002 1.570000e+002 1.570000e+002 1.570000e+002 1.570000e+002 1.570000e+002 1.570000e+002 1.570000e+002
 1.570000e+002 1.570000e+002 1.570000e+002 1.570000e+002 1.570000e+002 1.570000e+002 1.570000e+002 1.570000e+002 1.570000e+002 1.570000e+002
 1.570000e+002 1.570000e+002 1.570000e+002 1.570000e+002 1.570000e+002 1.570000e+002 1.570000e+002 1.570000e+002 1.570000e+002 1.570000e+002
INTERNAL  1.000000e+000  (FREE)  -1  BULKD Layer 3
 1.570000e+002 1.570000e+002 1.570000e+002 1.570000e+002 1.570000e+002 1.570000e+002 1.570000e+002 1.570000e+002 1.570000e+002 1.570000e+002
 1.570000e+002 1.570000e+002 1.570000e+002 1.570000e+002 1.570000e+002 1.570000e+002 1.570000e+002 1.570000e+002 1.570000e+002 1.570000e+002
 1.570000e+002 1.570000e+002 1.570000e+002 1.570000e+002 1.570000e+002 1.570000e+002 1.570000e+002 1.570000e+002 1.570000e+002 1.570000e+002
 1.570000e+002 1.570000e+002 1.570000e+002 1.570000e+002 1.570000e+002 1.570000e+002 1.570000e+002 1.570000e+002 1.570000e+002 1.570000e+002
 1.570000e+002 1.570000e+002 1.570000e+002 1.570000e+002 1.570000e+002 1.570000e+002 1.570000e+002 1.570000e+002 1.570000e+002 1.570000e+002
 1.570000e+002 1.570000e+002 1.570000e+002 1.570000e+002 1.570000e+002 1.570000e+002 1.570000e+002 1.570000e+002 1.570000e+002 1.570000e+002
 1.570000e+002 1.570000e+002 1.570000e+002 1.570000e+002 1.570000e+002 1.570000e+002 1.570000e+002 1.570000e+002 1.570000e+002 1.570000e+002
 1.570000e+002 1.570000e+002 1.570000e+002 1.570000e+002 1.570000e+002 1.570000e+002 1.570000e+002 1.570000e+002 1.570000e+002 1.570000e+002
 1.570000e+002 1.570000e+002 1.570000e+002 1.570000e+002 1.570000e+002 1.570000e+002 1.570000e+002 1.570000e+002 1.570000e+002 1.570000e+002
 1.570000e+002 1.570000e+002 1.570000e+002 1.570000e+002 1.570000e+002 1.570000e+002 1.570000e+002 1.570000e+002 1.570000e+002 1.570000e+002
 1.570000e+002 1.570000e+002 1.570000e+002 1.570000e+002 1.570000e+002 1.570000e+002 1.570000e+002 1.570000e+002 1.570000e+002 1.570000e+002
 1.570000e+002 1.570000e+002 1.570000e+002 1.570000e+002 1.570000e+002 1.570000e+002 1.570000e+002 1.570000e+002 1.570000e+002 1.570000e+002
 1.570000e+002 1.570000e+002 1.570000e+002 1.570000e+002 1.570000e+002 1.570000e+002 1.570000e+002 1.570000e+002 1.570000e+002 1.570000e+002
 1.570000e+002 1.570000e+002 1.570000e+002 1.570000e+002 1.570000e+002 1.570000e+002 1.570000e+002 1.570000e+002 1.570000e+002 1.570000e+002
 1.570000e+002 1.570000e+002 1.570000e+002 1.570000e+002 1.570000e+002 1.570000e+002 1.570000e+002 1.570000e+002 1.570000e+002 1.570000e+002
 1.570000e+002 1.570000e+002 1.570000e+002 1.570000e+002 1.570000e+002 1.570000e+002 1.570000e+002 1.570000e+002 1.570000e+002 1.570000e+002
 1.570000e+002 1.570000e+002 1.570000e+002 1.570000e+002 1.570000e+002 1.570000e+002 1.570000e+002 1.570000e+002 1.570000e+002 1.570000e+002
 1.570000e+002 1.570000e+002 1.570000e+002 1.570000e+002 1.570000e+002 1.570000e+002 1.570000e+002 1.570000e+002 1.570000e+002 1.570000e+002
 1.570000e+002 1.570000e+002 1.570000e+002 1.570000e+002 1.570000e+002 1.570000e+002 1.570000e+002 1.570000e+002 1.570000e+002 1.570000e+002
 1.570000e+002 1.570000e+002 1.570000e+002 1.570000e+002 1.570000e+002 1.570000e+002 1.570000e+002 1.570000e+002 1.570000e+002 1.570000e+002
 1.570000e+002 1.570000e+002 1.570000e+002 1.570000e+002 1.570000e+002 1.570000e+002 1.570000e+002 1.570000e+002 1.570000e+002 1.570000e+002
 1.570000e+002 1.570000e+002 1.570000e+002 1.570000e+002 1.570000e+002 1.570000e+002 1.570000e+002 1.570000e+002 1.570000e+002 1.570000e+002
 1.570000e+002 1.570000e+002 1.570000e+002 1.570000e+002 1.570000e+002 1.570000e+002 1.570000e+002 1.570000e+002 1.570000e+002 1.570000e+002
 1.570000e+002 1.570000e+002 1.570000e+002 1.570000e+002 1.570000e+002 1.570000e+002 1.570000e+002 1.570000e+002 1.570000e+002 1.570000e+002
 1.570000e+002 1.570000e+002 1.570000e+002 1.570000e+002 1.570000e+002 1.570000e+002 1.570000e+002 1.570000e+002 1.570000e+002 1.570000e+002
 1.570000e+002 1.570000e+002 1.570000e+002 1.570000e+002 1.570000e+002 1.570000e+002 1.570000e+002 1.570000e+002 1.570000e+002 1.570000e+002
 1.570000e+002 1.570000e+002 1.570000e+002 1.570000e+002 1.570000e+002 1.570000e+002 1.570000e+002 1.570000e+002 1.570000e+002 1.570000e+002
 1.570000e+002 1.570000e+002 1.570000e+002 1.570000e+002 1.570000e+002 1.570000e+002 1.570000e+002 1.570000e+002 1.570000e+002 1.570000e+002
 1.570000e+002 1.570000e+002 1.570000e+002 1.570000e+002 1.570000e+002 1.570000e+002 1.570000e+002 1.570000e+002 1.570000e+002 1.570000e+002
 1.570000e+002 1.570000e+002 1.570000e+002 1.570000e+002 1.570000e+002 1.570000e+002 1.570000e+002 1.570000e+002 1.570000e+002 1.570000e+002
 1.570000e+002 1.570000e+002 1.570000e+002 1.570000e+002 1.570000e+002 1.570000e+002 1.570000e+002 1.570000e+002 1.570000e+002 1.570000e+002
 1.570000e+002 1.570000e+002 1.570000e+002 1.570000e+002 1.570000e+002 1.570000e+002 1.570000e+002 1.570000e+002 1.570000e+002 1.570000e+002
 1.570000e+002 1.570000e+002 1.570000e+002 1.570000e+002 1.570000e+002 1.570000e+002 1.570000e+002 1.570000e+002 1.570000e+002 1.570000e+002
 1.570000e+002 1.570000e+002 1.570000e+002 1.570000e+002 1.570000e+002 1.570000e+002 1.570000e+002 1.570000e+002 1.570000e+002 1.570000e+002
 1.570000e+002 1.570000e+002 1.570000e+002 1.570000e+002 1.570000e+002 1.570000e+002 1.570000e+002 1.570000e+002 1.570000e+002 1.570000e+002
 1.570000e+002 1.570000e+002 1.570000e+002 1.570000e+002 1.570000e+002 1.570000e+002 1.570000e+002 1.570000e+002 1.570000e+002 1.570000e+002
 1.570000e+002 1.570000e+002 1.570000e+002 1.570000e+002 1.570000e+002 1.570000e+002 1.570000e+002 1.570000e+002 1.570000e+002 1.570000e+002
 1.570000e+002 1.570000e+002 1.570000e+002 1.570000e+002 1.570000e+002 1.570000e+002 1.570000e+002 1.570000e+002 1.570000e+002 1.570000e+002
 1.570000e+002 1.570000e+002 1.570000e+002 1.570000e+002 1.570000e+002 1.570000e+002 1.570000e+002 1.570000e+002 1.570000e+002 1.570000e+002
 1.570000e+002 1.570000e+002 1.570000e+002 1.570000e+002 1.570000e+002 1.570000e+002 1.570000e+002 1.570000e+002 1.570000e+002 1.570000e+002
INTERNAL  1.0  (FREE)  -1  ANGLEX by NJAG
 0.000000e+000 0.000000e+000 1.570796e+000 0.000000e+000
 0.000000e+000 3.141593e+000 0.000000e+000 1.570796e+000 0.000000e+000
 0.000000e+000 3.141593e+000 0.000000e+000 1.570796e+000 0.000000e+000
 0.000000e+000 3.141593e+000 0.000000e+000 1.570796e+000 0.000000e+000
 0.000000e+000 3.141593e+000 0.000000e+000 1.570796e+000 0.000000e+000
 0.000000e+000 3.141593e+000 0.000000e+000 1.570796e+000 0.000000e+000
 0.000000e+000 3.141593e+000 0.000000e+000 1.570796e+000 0.000000e+000
 0.000000e+000 3.141593e+000 0.000000e+000 1.570796e+000 0.000000e+000
 0.000000e+000 3.141593e+000 0.000000e+000 1.570796e+000 0.000000e+000
 0.000000e+000 3.141593e+000 0.000000e+000 1.570796e+000 0.000000e+000
 0.000000e+000 3.141593e+000 0.000000e+000 1.570796e+000 0.000000e+000
 0.000000e+000 3.141593e+000 0.000000e+000 1.570796e+000 0.000000e+000
 0.000000e+000 3.141593e+000 0.000000e+000 1.570796e+000 0.000000e+000
 0.000000e+000 3.141593e+000 0.000000e+000 1.570796e+000 0.000000e+000
 0.000000e+000 3.141593e+000 0.000000e+000 1.570796e+000 0.000000e+000
 0.000000e+000 3.141593e+000 0.000000e+000 1.570796e+000 0.000000e+000
 0.000000e+000 3.141593e+000 0.000000e+000 1.570796e+000 0.000000e+000
 0.000000e+000 3.141593e+000 0.000000e+000 1.570796e+000 0.000000e+000
 0.000000e+000 3.141593e+000 0.000000e+000 1.570796e+000 0.000000e+000
 0.000000e+000 3.141593e+000 1.570796e+000 0.000000e+000
 0.000000e+000 4.712389e+000 0.000000e+000 1.570796e+000 0.000000e+000
 0.000000e+000 4.712389e+000 3.141593e+000 0.000000e+000 1.570796e+000 0.000000e+000
 0.000000e+000 4.712389e+000 3.141593e+000 0.000000e+000 1.570796e+000 0.000000e+000
 0.000000e+000 4.712389e+000 3.141593e+000 0.000000e+000 1.570796e+000 0.000000e+000
 0.000000e+000 4.712389e+000 3.141593e+000 0.000000e+000 1.570796e+000 0.000000e+000
 0.000000e+000 4.712389e+000 3.141593e+000 0.000000e+000 1.570796e+000 0.000000e+000
 0.000000e+000 4.712389e+000 3.141593e+000 0.000000e+000 1.570796e+000 0.000000e+000
 0.000000e+000 4.712389e+000 3.141593e+000 0.000000e+000 1.570796e+000 0.000000e+000
 0.000000e+000 4.712389e+000 3.141593e+000 0.000000e+000 1.570796e+000 0.000000e+000
 0.000000e+000 4.712389e+000 3.141593e+000 0.000000e+000 1.570796e+000 0.000000e+000
 0.000000e+000 4.712389e+000 3.141593e+000 0.000000e+000 1.570796e+000 0.000000e+000
 0.000000e+000 4.712389e+000 3.141593e+000 0.000000e+000 1.570796e+000 0.000000e+000
 0.000000e+000 4.712389e+000 3.141593e+000 0.000000e+000 1.570796e+000 0.000000e+000
 0.000000e+000 4.712389e+000 3.141593e+000 0.000000e+000 1.570796e+000 0.000000e+000
 0.000000e+000 4.712389e+000 3.141593e+000 0.000000e+000 1.570796e+000 0.000000e+000
 0.000000e+000 4.712389e+000 3.141593e+000 0.000000e+000 1.570796e+000 0.000000e+000
 0.000000e+000 4.712389e+000 3.141593e+000 0.000000e+000 1.570796e+000 0.000000e+000
 0.000000e+000 4.712389e+000 3.141593e+000 0.000000e+000 1.570796e+000 0.000000e+000
 0.000000e+000 4.712389e+000 3.141593e+000 0.000000e+000 1.570796e+000 0.000000e+000
 0.000000e+000 4.712389e+000 3.141593e+000 1.570796e+000 0.000000e+000
 0.000000e+000 4.712389e+000 0.000000e+000 1.570796e+000 0.000000e+000
 0.000000e+000 4.712389e+000 3.141593e+000 0.000000e+000 1.570796e+000 0.000000e+000
 0.000000e+000 4.712389e+000 3.141593e+000 0.000000e+000 1.570796e+000 0.000000e+000
 0.000000e+000 4.712389e+000 3.141593e+000 0.000000e+000 1.570796e+000 0.000000e+000
 0.000000e+000 4.712389e+000 3.141593e+000 0.000000e+000 1.570796e+000 0.000000e+000
 0.000000e+000 4.712389e+000 3.141593e+000 0.000000e+000 1.570796e+000 0.000000e+000
 0.000000e+000 4.712389e+000 3.141593e+000 0.000000e+000 1.570796e+000 0.000000e+000
 0.000000e+000 4.712389e+000 3.141593e+000 0.000000e+000 1.570796e+000 0.000000e+000
 0.000000e+000 4.712389e+000 3.141593e+000 0.000000e+000 1.570796e+000 0.000000e+000
 0.000000e+000 4.712389e+000 3.141593e+000 0.000000e+000 1.570796e+000 0.000000e+000
 0.000000e+000 4.712389e+000 3.141593e+000 0.000000e+000 1.570796e+000 0.000000e+000
 0.000000e+000 4.712389e+000 3.141593e+000 0.000000e+000 1.570796e+000 0.000000e+000
 0.000000e+000 4.712389e+000 3.141593e+000 0.000000e+000 1.570796e+000 0.000000e+000
 0.000000e+000 4.712389e+000 3.141593e+000 0.000000e+000 1.570796e+000 0.000000e+000
 0.000000e+000 4.712389e+000 3.141593e+000 0.000000e+000 1.570796e+000 0.000000e+000
 0.000000e+000 4.712389e+000 3.141593e+000 0.000000e+000 1.570796e+000 0.000000e+000
 0.000000e+000 4.712389e+000 3.141593e+000 0.000000e+000 1.570796e+000 0.000000e+000
 0.000000e+000 4.712389e+000 3.141593e+000 0.000000e+000 1.570796e+000 0.000000e+000
 0.000000e+000 4.712389e+000 3.141593e+000 0.000000e+000 1.570796e+000 0.000000e+000
 0.000000e+000 4.712389e+000 3.141593e+000 1.570796e+000 0.000000e+000
 0.000000e+000 4.712389e+000 0.000000e+000 1.570796e+000 0.000000e+000
 0.000000e+000 4.712389e+000 3.141593e+000 0.000000e+000 1.570796e+000 0.000000e+000
 0.000000e+000 4.712389e+000 3.141593e+000 0.000000e+000 1.570796e+000 0.000000e+000
 0.000000e+000 4.712389e+000 3.141593e+000 0.000000e+000 1.570796e+000 0.000000e+000
 0.000000e+000 4.712389e+000 3.141593e+000 0.000000e+000 1.570796e+000 0.000000e+000
 0.000000e+000 4.712389e+000 3.141593e+000 0.000000e+000 1.570796e+000 0.000000e+000
 0.000000e+000 4.712389e+000 3.141593e+000 0.000000e+000 1.570796e+000 0.000000e+000
 0.000000e+000 4.712389e+000 3.141593e+000 0.000000e+000 1.570796e+000 0.000000e+000
 0.000000e+000 4.712389e+000 3.141593e+000 0.000000e+000 1.570796e+000 0.000000e+000
 0.000000e+000 4.712389e+000 3.141593e+000 0.000000e+000 1.570796e+000 0.000000e+000
 0.000000e+000 4.712389e+000 3.141593e+000 0.000000e+000 1.570796e+000 0.000000e+000
 0.000000e+000 4.712389e+000 3.141593e+000 0.000000e+000 1.570796e+000 0.000000e+000
 0.000000e+000 4.712389e+000 3.141593e+000 0.000000e+000 1.570796e+000 0.000000e+000
 0.000000e+000 4.712389e+000 3.141593e+000 0.000000e+000 1.570796e+000 0.000000e+000
 0.000000e+000 4.712389e+000 3.141593e+000 0.000000e+000 1.570796e+000 0.000000e+000
 0.000000e+000 4.712389e+000 3.141593e+000 0.000000e+000 1.570796e+000 0.000000e+000
 0.000000e+000 4.712389e+000 3.141593e+000 0.000000e+000 1.570796e+000 0.000000e+000
 0.000000e+000 4.712389e+000 3.141593e+000 0.000000e+000 1.570796e+000 0.000000e+000
 0.000000e+000 4.712389e+000 3.141593e+000 0.000000e+000 1.570796e+000 0.000000e+000
 0.000000e+000 4.712389e+000 3.141593e+000 1.570796e+000 0.000000e+000
 0.000000e+000 4.712389e+000 0.000000e+000 1.570796e+000 0.000000e+000
 0.000000e+000 4.712389e+000 3.141593e+000 0.000000e+000 1.570796e+000 0.000000e+000
 0.000000e+000 4.712389e+000 3.141593e+000 0.000000e+000 1.570796e+000 0.000000e+000
 0.000000e+000 4.712389e+000 3.141593e+000 0.000000e+000 1.570796e+000 0.000000e+000
 0.000000e+000 4.712389e+000 3.141593e+000 0.000000e+000 1.570796e+000 0.000000e+000
 0.000000e+000 4.712389e+000 3.141593e+000 0.000000e+000 1.570796e+000 0.000000e+000